Circuit: * C:\Users\noel\Desktop\MOSH\ltspice\Draft1.asc

Direct Newton iteration for .op point succeeded.

Date: Fri Dec 13 10:52:12 2019
Total elapsed time: 0.219 seconds.

tnom = 27
temp = 27
method = trap
totiter = 22
traniter = 0
tranpoints = 0
accept = 0
rejected = 0
matrix size = 11
fillins = 5
solver = Normal
Matrix Compiler1:      32 opcodes
Matrix Compiler2: 965 bytes object code size
